152
Coordinates from ORCA-job PP_isotactic
  C          -3.27325488567299     -0.34472425823383      1.02474156345323
  C          -1.85988392246848      0.19140833832078      1.46829187813629
  H          28.70733665916548      3.26258514391027      1.20267156449121
  H          27.95977236992338      3.67692751871069      2.72827809828721
  C          -4.38162487235128      0.06680836439984      2.03401274918087
  C          -0.77999557488477      0.55291719726503      0.39409979151778
  H          -2.00307067907700      1.08580367993430      2.07934085466819
  H          -1.44843280107567     -0.55877634591349      2.15019756063799
  C           0.67873223117879      0.57023951029799      0.97561760299010
  H          -2.42310727944121     -2.10233483515013      0.07847683586174
  C          -0.82666991119448     -0.35121061539856     -0.83276812950989
  C           1.72345086914564      1.59931815186229      0.41051730466402
  H           0.62847638208180      0.73345883478883      2.05445842105286
  H           1.07933265780781     -0.44029672024904      0.85442373313145
  C           3.21135749770532      1.18143211106388      0.68521658106096
  H          -0.13845711288553     -0.01325269080232     -1.60075224905394
  C           1.54629259155717      1.87647581057886     -1.07894842829760
  C           4.30394733893916      2.28614883229705      0.92608785212855
  H           3.24142813933693      0.51585726796934      1.55076113030768
  H           3.52326902371999      0.56453274142706     -0.16259156335836
  C           5.74357005787217      1.76999035986073      0.58014585734363
  H           2.20719682292857      2.66876778474024     -1.41314774018368
  C           4.01625416990864      3.57775800236870      0.16546501694560
  C           7.01708164202128      2.38550243270921      1.27341441748929
  H           5.78178632031807      0.69237527763637      0.75589340936360
  H           5.83899016587056      1.89004599861355     -0.50247589439961
  C           8.33761067654660      2.03389184270855      0.48137640196493
  H           4.71221750706736      4.36302507659391      0.43424520887793
  C           6.87684388801500      3.86283185345997      1.61000805063487
  C           9.65736545472731      2.85677789974919      0.71167893967690
  H           8.54855285177845      0.97944084800022      0.67314477139706
  H           8.11757034928025      2.09406605200302     -0.58855638033940
  C          10.96187221964220      2.00515377185138      0.45489669832634
  H           7.74250651354741      4.21853935111149      2.16474628922708
  C           9.61288669349769      4.15254923632540     -0.09476925607499
  C          12.28577512847021      2.71838253926129      0.00470845364328
  H          11.15446617503546      1.44129103975932      1.37028084716220
  H          10.74139461140052      1.25361688979266     -0.30838287101923
  C          13.58218330623034      1.97670001085454      0.48181968818420
  H          10.54092146993882      4.71400717205862     -0.01857596710899
  C          12.23874595216983      2.92788190942646     -1.50440657740623
  C          14.99222266332163      2.38050481535512     -0.10001938606951
  H          13.61804241989821      2.09095088695756      1.56835938861393
  H          13.46429027374367      0.90277458524717      0.30629807898045
  C          16.14553986293527      2.05009461054448      0.90944654242291
  H          13.00075261663878      3.62706932700972     -1.84414465902512
  C          15.20044839089967      1.75669930854474     -1.47768063824942
  C          17.59326754997002      1.81940269924573      0.36495544874132
  H          16.16139242567601      2.85232908696127      1.65025662044887
  H          15.87288588946272      1.15002536118337      1.46776566176593
  C          18.70285416748819      2.30698738144636      1.35055885122149
  H          16.20771925949555      1.92136173125461     -1.85092918966064
  C          17.74011493216428      0.35435322050911     -0.03269778262123
  C          20.14773819021504      1.73227121406388      1.19218250926724
  H          18.73528420357084      3.39689308291146      1.27991155974050
  H          18.38372519631796      2.09381484055671      2.37511709294506
  C          21.25831730797093      2.76298732351378      1.58823951194168
  H          18.71524984914896      0.13624589971993     -0.46273379339456
  C          20.24524987032125      0.41182558003045      1.95097752693532
  C          22.68177637319476      2.22804639481654      1.95060638555517
  H          21.33647951482432      3.47576192276561      0.76386106652705
  H          20.90720376654469      3.34732774711841      2.44373377400141
  C          23.83343333194420      3.19962879655438      1.53518833167168
  H          21.22698620012536     -0.04699948902675      1.86033942951440
  C          22.71633025542086      1.86646817729364      3.43243717941909
  C          25.24282283843765      2.94800188559877      2.15693610048571
  H          23.90549601476168      3.16140024245279      0.44524336061157
  H          23.54024049367653      4.22621732692233      1.77514739427377
  C          26.43162415957451      3.30326212919470      1.22022516126107
  H          23.67267410016530      1.45047191944740      3.73983863055660
  C          25.38299636165503      3.71014176665615      3.47431903249169
  C          27.82268696103232      3.05892642208184      1.84275543109682
  H          26.33704827070418      2.72184914158483      0.30000805370672
  H          26.34244346300802      4.35335062115469      0.92721436523353
  H          27.91024834952824      2.01973175506859      2.16810769605324
  H          -4.82591074845051     -2.62225158486298      2.59599104434718
  C          -3.19131980550443     -1.84973682654861      0.80065101554781
  C          -5.71996120784663     -0.72925884901866      2.02733834314147
  H          -3.97455579564414      0.00674567495245      3.04752867482243
  H          -4.58797235862167      1.12688499013568      1.86865059952871
  C          -6.95236211388588      0.17398258712862      2.34324583757688
  H          -7.17372326386501     -0.80478939463194      4.67751620358960
  C          -5.59688181779547     -1.94384031632066      2.94544515666359
  C          -8.25318597033732     -0.54751147970190      2.79751626551548
  H          -6.67982069283196      0.89817083420558      3.11589941714037
  H          -7.14884675227779      0.76869314941279      1.44799261595297
  C          -9.54590830117542      0.19122862102640      2.36911287316958
  H         -10.63070136111641     -1.76735971197145      4.27048914937049
  C          -8.19575296203404     -0.76845235431238      4.31644837195074
  C         -10.89687774609119     -0.56567013923547      2.46168858202253
  H          -9.62372435485960      1.12071663308851      2.94284197625192
  H          -9.42643662564952      0.49598044958091      1.32603453055164
  C         -12.04664766302414      0.27342939800282      1.86292655860913
  H         -15.54178510748276     -0.39360390945820      2.22885200890747
  C         -11.28512772965544     -1.00189899368631      3.86840180851364
  C         -13.39243665859117     -0.47979505661220      1.62522132524012
  H         -12.21245739902851      1.13687218626239      2.51309506730652
  H         -11.71052647764120      0.68667283059304      0.90990151026638
  C         -13.72330499881508     -0.52303519484040      0.13829381141289
  H         -13.87200893930606      0.48355988414770     -0.25573371204163
  C         -14.57132816454124      0.10487183241457      2.41690131048287
  H         -12.91813437560468     -0.98486338013950     -0.43374887115860
  H         -14.63415011547093     -1.09071647864595     -0.05336439777096
  H         -13.25654644062622     -1.51347825069244      1.95630818382173
  H         -14.38525624288095      0.05893812030686      3.49019610192541
  H         -14.71035357648511      1.15703362979401      2.15980860268699
  H         -10.79863973462787     -1.46550426912712      1.84231014168078
  H         -11.26827769221116     -0.15411151082307      4.55484351276072
  H         -12.29488871478917     -1.40871841802827      3.88168449231105
  H          -8.27998442716238     -1.52019551913240      2.29750220167899
  H          -8.68657046176718      0.05133896534810      4.84052612740769
  H          -8.67588710194349     -1.68950186329488      4.63367196388196
  H          -5.88728009449947     -1.10603242232908      1.01357782945943
  H          -5.32278943108933     -1.64687183619088      3.95706860180735
  H          -6.51891440311574     -2.51552346445521      3.00552691259895
  H          -3.53681250438644      0.12082174037871      0.06995181215333
  H          -2.93899705495498     -2.36753623245910      1.72556442638811
  H          -4.12730610438965     -2.26301172139438      0.42953153675939
  H          -1.02564163460619      1.56541232878865      0.06138824677907
  H          -0.53903593620392     -1.37059020400887     -0.57672086748674
  H          -1.81706015355199     -0.38177382769578     -1.28213999879127
  H           1.52870356085974      2.53586401538333      0.94057166874393
  H           1.78527117924078      0.99273273873834     -1.66978663886109
  H           0.53229428751405      2.18299322379635     -1.32519416058201
  H           4.26321113204089      2.52300039943260      1.99363127323874
  H           4.10577792088541      3.42600809071142     -0.90938163077956
  H           3.01598114352186      3.95379262710958      0.36767374370511
  H           7.10331163942092      1.87885411835670      2.23999001014601
  H           6.76971246433578      4.48631232457272      0.72577319405494
  H           6.00804707831616      4.03332954953782      2.24273507730265
  H           9.69884437934267      3.13931023223536      1.76769443098572
  H           9.42580383995085      3.95816060349090     -1.15016215873265
  H           8.81994520540966      4.80632612164938      0.24844437398132
  H          12.32983047594942      3.70338741474262      0.47781594414479
  H          12.38126568479109      1.98446916782088     -2.02943445697716
  H          11.28123812191324      3.32906486756599     -1.81928772704101
  H          14.99912661602090      3.46809032545764     -0.22690563790189
  H          15.02576287750332      0.68097749367319     -1.45565480036863
  H          14.52574506249614      2.17295111288705     -2.21531462762867
  H          17.72410992756659      2.41833770991561     -0.54065053095481
  H          17.59762439579602     -0.29879925269305      0.82788913922223
  H          16.99310090677877      0.07253823795436     -0.76735398746174
  H          20.31487503951102      1.51193107893208      0.13325918198195
  H          20.03573107614418      0.55489962745865      3.01066414138112
  H          19.52263885923931     -0.30770348148793      1.58130898974454
  H          22.85384422899806      1.30885788318774      1.38150456286570
  H          22.51888910331308      2.74486117915258      4.04702353840789
  H          21.95427827499469      1.13457084287119      3.67520216827488
  H          25.32882670280576      1.87593194416612      2.36521469095034
  H          25.49016043059073      4.77916379761868      3.27792637962055
  H          24.51706098937648      3.58839274349983      4.11526846692263
  H          26.25246496569252      3.39118678441326      4.04490453304554
