296
1552371
C       2.058027    0.311700   -1.918026
C       1.671085    1.766300   -1.507478
C       1.416673    1.766300    0.012830
C      -0.312178    3.574160   -0.115466
C       0.997338    3.137780    0.577332
C       0.742925    3.137780    2.097640
C       3.122524    3.719620    2.655728
C       1.968081    2.722180    2.937979
C       2.787138    2.722180   -1.956514
C       3.041551    2.722180   -3.476822
C       1.713669    2.722180    4.458287
C       0.984558    0.311700    4.496776
C       0.597616    1.766300    4.907323
C       0.343203    1.766300    6.427631
C      -1.385647    3.574160    6.299335
C      -0.076132    3.137780    6.992134
C      -0.330544    3.137780    8.512442
C       2.049054    3.719620    9.070529
C       0.894611    2.722180    9.352781
C       0.640199    2.722180   10.873089
C      -0.088912    0.311700   10.911577
C      -0.475854    1.766300   11.322125
C      -0.730266    1.766300   12.842433
C      -2.459117    3.574160   12.714137
C      -1.149602    3.137780   13.406935
C      -1.404014    3.137780   14.927243
C       0.975584    3.719620   15.485331
C      -0.178858    2.722180   15.767582
C      -0.433271    2.722180   17.287890
C      -1.162381    0.311700   17.326379
C      -1.549324    1.766300   17.736926
C      -1.803736    1.766300   19.257234
C      -3.532586    3.574160   19.128938
C      -2.223071    3.137780   19.821737
C      -2.477483    3.137780   21.342045
C      -0.097885    3.719620   21.900132
C      -1.252328    2.722180   22.182384
C      -1.506740    2.722180   23.702692
C      -2.235851    0.311700   23.741181
C      -2.622793    1.766300   24.151728
C      -2.877205    1.766300   25.672036
C      -4.606056    3.574160   25.543740
C      -3.296541    3.137780   26.236538
C      -3.550953    3.137780   27.756846
C      -1.171355    3.719620   28.314934
C      -2.325798    2.722180   28.597185
C      -2.580210    2.722180   30.117493
C      -3.309321    0.311700   30.155982
C      -3.696263    1.766300   30.566529
C      -3.950675    1.766300   32.086837
C      -5.679526    3.574160   31.958541
C      -4.370010    3.137780   32.651340
C      -4.624423    3.137780   34.171648
C      -2.244825    3.719620   34.729736
C      -3.399267    2.722180   35.011987
C      -3.653680    2.722180   36.532295
C      -4.382790    0.311700   36.570784
C      -4.769732    1.766300   36.981331
C      -5.024145    1.766300   38.501639
C      -6.752995    3.574160   38.373343
C      -5.443480    3.137780   39.066141
C      -5.697892    3.137780   40.586449
C      -3.318294    3.719620   41.144537
C      -4.472737    2.722180   41.426788
C      -4.727149    2.722180   42.947096
C      -5.456260    0.311700   42.985585
C      -5.843202    1.766300   43.396133
C      -6.097614    1.766300   44.916440
C      -7.826465    3.574160   44.788144
C      -6.516950    3.137780   45.480943
C      -6.771362    3.137780   47.001251
C      -4.391764    3.719620   47.559339
C      -5.546206    2.722180   47.841590
C      -5.800619    2.722180   49.361898
C       4.035238   10.701700    5.125426
C       4.422180   12.156300    4.714879
C       4.676592   12.156300    3.194571
C       6.405443   13.964160    3.322867
C       5.095927   13.527780    2.630069
C       5.350340   13.527780    1.109761
C       2.970742   14.109620    0.551673
C       4.125184   13.112180    0.269422
C       3.306127   13.112180    5.163915
C       3.051715   13.112180    6.684223
C       4.379597   13.112180   -1.250886
C       2.961768   10.701700   11.540228
C       3.348710   12.156300   11.129681
C       3.603122   12.156300    9.609373
C       5.331973   13.964160    9.737669
C       4.022458   13.527780    9.044870
C       4.276870   13.527780    7.524562
C       1.897272   14.109620    6.966474
C       2.232657   13.112180   11.578717
C       1.978245   13.112180   13.099025
C       1.888299   10.701700   17.955030
C       2.275241   12.156300   17.544482
C       2.529653   12.156300   16.024174
C       4.258503   13.964160   16.152470
C       2.948988   13.527780   15.459672
C       3.203400   13.527780   13.939364
C       0.823802   14.109620   13.381276
C       1.159188   13.112180   17.993518
C       0.904775   13.112180   19.513826
C       0.814829   10.701700   24.369831
C       1.201771   12.156300   23.959284
C       1.456183   12.156300   22.438976
C       3.185034   13.964160   22.567272
C       1.875519   13.527780   21.874473
C       2.129931   13.527780   20.354165
C      -0.249667   14.109620   19.796078
C       0.085718   13.112180   24.408320
C      -0.168694   13.112180   25.928628
C      -0.258641   10.701700   30.784633
C       0.128301   12.156300   30.374085
C       0.382714   12.156300   28.853777
C       2.111564   13.964160   28.982073
C       0.802049   13.527780   28.289275
C       1.056461   13.527780   26.768967
C      -1.323137   14.109620   26.210879
C      -0.987752   13.112180   30.823121
C      -1.242164   13.112180   32.343429
C      -1.332110   10.701700   37.199434
C      -0.945168   12.156300   36.788887
C      -0.690756   12.156300   35.268579
C       1.038095   13.964160   35.396875
C      -0.271421   13.527780   34.704076
C      -0.017008   13.527780   33.183768
C      -2.396607   14.109620   32.625681
C      -2.061221   13.112180   37.237923
C      -2.315633   13.112180   38.758231
C      -2.405580   10.701700   43.614236
C      -2.018638   12.156300   43.203688
C      -1.764226   12.156300   41.683380
C      -0.035375   13.964160   41.811677
C      -1.344890   13.527780   41.118878
C      -1.090478   13.527780   39.598570
C      -3.470076   14.109620   39.040482
C      -3.134691   13.112180   43.652725
C      -3.389103   13.112180   45.173033
C      -3.479050   10.701700   50.029037
C      -3.092108   12.156300   49.618490
C      -2.837695   12.156300   48.098182
C      -1.108845   13.964160   48.226478
C      -2.418360   13.527780   47.533680
C      -2.163948   13.527780   46.013372
C      -4.543546   14.109620   45.455284
C      -4.208160   13.112180   50.067526
C      -4.462573   13.112180   51.587834
C       3.498503   20.468300    8.332827
C       3.885445   19.013700    7.922280
C       4.139857   19.013700    6.401972
C       5.868708   17.205840    6.530268
C       4.559193   17.642220    5.837469
C       4.813605   17.642220    4.317161
C       2.434007   17.060380    3.759074
C       3.588449   18.057820    3.476822
C       2.769392   18.057820    8.371316
C       2.514980   18.057820    9.891624
C       3.842862   18.057820    1.956514
C       2.425033   20.468300   14.747629
C       2.811975   19.013700   14.337081
C       3.066388   19.013700   12.816774
C       4.795238   17.205840   12.945070
C       3.485723   17.642220   12.252271
C       3.740135   17.642220   10.731963
C       1.360537   17.060380   10.173875
C       1.695923   18.057820   14.786118
C       1.441510   18.057820   16.306426
C       1.351564   20.468300   21.162430
C       1.738506   19.013700   20.751883
C       1.992918   19.013700   19.231575
C       3.721769   17.205840   19.359871
C       2.412253   17.642220   18.667073
C       2.666666   17.642220   17.146765
C       0.287068   17.060380   16.588677
C       0.622453   18.057820   21.200919
C       0.368041   18.057820   22.721227
C       0.278094   20.468300   27.577232
C       0.665036   19.013700   27.166685
C       0.919448   19.013700   25.646377
C       2.648299   17.205840   25.774673
C       1.338784   17.642220   25.081874
C       1.593196   17.642220   23.561566
C      -0.786402   17.060380   23.003478
C      -0.451017   18.057820   27.615721
C      -0.705429   18.057820   29.136029
C      -0.795376   20.468300   33.992033
C      -0.408434   19.013700   33.581486
C      -0.154021   19.013700   32.061178
C       1.574829   17.205840   32.189474
C       0.265314   17.642220   31.496676
C       0.519726   17.642220   29.976368
C      -1.859872   17.060380   29.418280
C      -1.524486   18.057820   34.030522
C      -1.778899   18.057820   35.550830
C      -1.868845   20.468300   40.406835
C      -1.481903   19.013700   39.996288
C      -1.227491   19.013700   38.475980
C       0.501360   17.205840   38.604276
C      -0.808156   17.642220   37.911477
C      -0.553743   17.642220   36.391169
C      -2.933341   17.060380   35.833081
C      -2.597956   18.057820   40.445324
C      -2.852368   18.057820   41.965632
C      -2.942315   20.468300   46.821637
C      -2.555373   19.013700   46.411089
C      -2.300960   19.013700   44.890781
C      -0.572110   17.205840   45.019077
C      -1.881625   17.642220   44.326279
C      -1.627213   17.642220   42.805971
C      -4.006811   17.060380   42.247883
C      -3.671426   18.057820   46.860125
C      -3.925838   18.057820   48.380433
C      -4.015784   20.468300   53.236438
C      -3.628842   19.013700   52.825891
C      -3.374430   19.013700   51.305583
C      -1.645579   17.205840   51.433879
C      -2.955095   17.642220   50.741080
C      -2.700682   17.642220   49.220772
C      -5.080281   17.060380   48.662685
C      -4.744895   18.057820   53.274927
C      -4.999308   18.057820   54.795235
C       1.521293   10.078300    1.289375
C       1.134351    8.623700    1.699922
C       0.879938    8.623700    3.220230
C      -0.848912    6.815840    3.091934
C       0.460603    7.252220    3.784733
C       0.206191    7.252220    5.305041
C       2.585789    6.670380    5.863129
C       1.431346    7.667820    6.145380
C       2.250403    7.667820    1.250886
C       2.504816    7.667820   -0.269422
C       1.176934    7.667820    7.665688
C       0.447823   10.078300    7.704177
C       0.060881    8.623700    8.114724
C      -0.193531    8.623700    9.635032
C      -1.922382    6.815840    9.506736
C      -0.612867    7.252220   10.199534
C      -0.867279    7.252220   11.719842
C       1.512319    6.670380   12.277930
C       0.357876    7.667820   12.560181
C       0.103464    7.667820   14.080489
C      -0.625647   10.078300   14.118978
C      -1.012589    8.623700   14.529526
C      -1.267001    8.623700   16.049833
C      -2.995852    6.815840   15.921537
C      -1.686336    7.252220   16.614336
C      -1.940749    7.252220   18.134644
C       0.438850    6.670380   18.692732
C      -0.715593    7.667820   18.974983
C      -0.970005    7.667820   20.495291
C      -1.699116   10.078300   20.533780
C      -2.086058    8.623700   20.944327
C      -2.340471    8.623700   22.464635
C      -4.069321    6.815840   22.336339
C      -2.759806    7.252220   23.029138
C      -3.014218    7.252220   24.549446
C      -0.634620    6.670380   25.107533
C      -1.789063    7.667820   25.389785
C      -2.043475    7.667820   26.910093
C      -2.772586   10.078300   26.948581
C      -3.159528    8.623700   27.359129
C      -3.413940    8.623700   28.879437
C      -5.142791    6.815840   28.751141
C      -3.833276    7.252220   29.443939
C      -4.087688    7.252220   30.964247
C      -1.708090    6.670380   31.522335
C      -2.862532    7.667820   31.804586
C      -3.116945    7.667820   33.324894
C      -3.846056   10.078300   33.363383
C      -4.232998    8.623700   33.773930
C      -4.487410    8.623700   35.294238
C      -6.216261    6.815840   35.165942
C      -4.906745    7.252220   35.858741
C      -5.161158    7.252220   37.379049
C      -2.781559    6.670380   37.937136
C      -3.936002    7.667820   38.219388
C      -4.190414    7.667820   39.739696
C      -4.919525   10.078300   39.778184
C      -5.306467    8.623700   40.188732
C      -5.560880    8.623700   41.709040
C      -7.289730    6.815840   41.580744
C      -5.980215    7.252220   42.273542
C      -6.234627    7.252220   43.793850
C      -3.855029    6.670380   44.351938
C      -5.009472    7.667820   44.634189
C      -5.263884    7.667820   46.154497
C      -5.992995   10.078300   46.192986
C      -6.379937    8.623700   46.603533
C      -6.634349    8.623700   48.123841
C      -8.363200    6.815840   47.995545
C      -7.053684    7.252220   48.688344
C      -7.308097    7.252220   50.208652
C      -4.928499    6.670380   50.766739
C      -6.082941    7.667820   51.048991
C      -6.337354    7.667820   52.569299
